LAMMPS (29 Oct 2020)
# Big colloid particles and small LJ particles

units		lj
atom_style	sphere
dimension	2

lattice		sq 0.01
Lattice spacing in x,y,z = 10.000000 10.000000 10.000000
region		box block 0 30 0 30 -0.5 0.5
create_box	2 box
Created orthogonal box = (0.0000000 0.0000000 -5.0000000) to (300.00000 300.00000 5.0000000)
create_atoms	1 box
Created 900 atoms

set		group all type/fraction 2 0.92 23984
Setting atom values ...
  826 settings made for type/fraction

set		type 1 mass 9
Setting atom values ...
  74 settings made for mass
set		type 2 mass 1
Setting atom values ...
  826 settings made for mass

velocity	all create 1.44 87287 loop geom

# multi neighbor and comm for efficiency

neighbor	1 multi
neigh_modify	delay 0
comm_modify     mode multi

# colloid potential

pair_style	colloid 12.5
pair_coeff	1 1  1.0 1.0 5.0 5.0 12.5
pair_coeff	1 2  5.0 1.0 5.0 0.0 7.0
pair_coeff	2 2 10.0 1.0 0.0 0.0 2.5

fix		1 all npt temp 2.0 2.0 1.0 iso 0.0 1.0 10.0 drag 1.0 	        mtk no pchain 0 tchain 1
fix		2 all enforce2d

dump		1 all atom 1000 dump.colloid

compute 	myRDF all rdf 1000
#
fix		rdf all ave/time 1000 1 1000 c_myRDF[*] file tmp.rdf mode vector
#dump		2 all image 1000 image.*.jpg type type #		zoom 1.5 center d 0.5 0.5 0.5
#dump_modify	2 pad 5 adiam 1 5.0 adiam 2 1.5

#dump		3 all movie 1000 movie.mpg type type #		zoom 1.5 center d 0.5 0.5 0.5
#dump_modify	3 pad 5 adiam 1 5.0 adiam 2 1.5

thermo_style	custom step temp epair etotal press vol
thermo		1000

timestep	0.005

run		50000
  update every 1 steps, delay 0 steps, check yes
Step Temp E_pair TotEng Press Volume
0         1.44 -7.3788446e-06    1.4383926  0.014383743        90000
Averages over the last 26 of 51 rows, steps 25000 to 50000:
Temp E_pair TotEng Press Volume
2.01353 0.0717427 2.08303 0.736277 5439.92
Loop time of 7.9339 on 1 procs for 50000 steps with 900 atoms

Please see the log.cite file for references relevant to this simulation
